starting
  PyMOL2.5          3D                             0

 16 15  0  0  0  0  0  0  0  0999 V2000
   17.8960   28.5650   17.0260 N   0  0  0  0  0  0  0  0  0  0  0  0
   18.0150   27.2270   17.7300 C   0  0  0  0  0  0  0  0  0  0  0  0
   19.3580   27.1490   18.4000 C   0  0  0  0  0  0  0  0  0  0  0  0
   20.2780   26.5040   17.8600 O   0  0  0  0  0  0  0  0  0  0  0  0
   16.9480   26.9990   18.7920 C   0  0  0  0  0  0  0  0  0  0  0  0
   15.7330   26.3910   18.1430 C   0  0  0  0  0  0  0  0  0  0  0  0
   15.5410   24.9390   18.4770 C   0  0  0  0  0  0  0  0  0  0  0  0
   14.0320   24.6340   18.4820 C   0  0  0  0  0  0  0  0  0  0  0  0
   13.5480   24.8800   19.8450 N   0  0  0  0  0  0  0  0  0  0  0  0
   13.3240   23.9020   20.6930 C   0  0  0  0  0  0  0  0  0  0  0  0
   12.7740   24.3490   22.0830 C   0  0  0  0  0  0  0  0  0  0  0  0
   13.4920   22.7250   20.3660 O   0  0  0  0  0  0  0  0  0  0  0  0
   19.5040   27.7960   19.5580 N   0  0  0  0  0  0  0  0  0  0  0  0
   20.8480   27.8290   20.1630 C   0  0  0  0  0  0  0  0  0  0  0  0
   21.0540   28.6480   21.4200 C   0  0  0  0  0  0  0  0  0  0  0  0
   20.0990   29.0330   22.0560 O   0  0  0  0  0  0  0  0  0  0  0  0
  1  2  1  0  0  0  0
  2  3  1  0  0  0  0
  3  4  2  0  0  0  0
  3 13  1  0  0  0  0
  2  5  1  0  0  0  0
  5  6  1  0  0  0  0
  6  7  1  0  0  0  0
  7  8  1  0  0  0  0
  8  9  1  0  0  0  0
  9 10  1  0  0  0  0
 10 11  1  0  0  0  0
 10 12  2  0  0  0  0
 13 14  1  0  0  0  0
 14 15  1  0  0  0  0
 15 16  2  0  0  0  0
M  END
$$$$
