220
POCKET
N      4.442000   10.135000   -6.674000
C      4.012000    8.770000   -6.936000
C      5.074000    8.081000   -7.777000
O      5.560000    8.657000   -8.755000
C      2.660000    8.744000   -7.667000
C      1.663000    9.660000   -6.959000
C      2.146000    7.335000   -7.765000
C      0.381000    9.845000   -7.708000
N      5.506000    6.901000   -7.333000
C      6.485000    6.076000   -8.037000
C      5.958000    4.651000   -8.197000
O      5.445000    4.067000   -7.236000
C      7.841000    6.070000   -7.313000
C      8.815000    5.166000   -8.033000
C      8.389000    7.483000   -7.236000
N      6.089000    4.090000   -9.403000
C      5.762000    2.687000   -9.649000
C      6.873000    2.058000  -10.469000
O      7.258000    2.601000  -11.506000
C      4.460000    2.460000  -10.426000
C      3.168000    2.863000   -9.777000
C      2.682000    4.152000   -9.903000
C      2.421000    1.946000   -9.049000
C      1.490000    4.519000   -9.328000
C      1.227000    2.310000   -8.466000
C      0.772000    3.604000   -8.605000
O     -0.413000    3.993000   -8.036000
N      7.418000    0.947000   -9.987000
C      8.339000    0.136000  -10.769000
C      7.701000   -1.192000  -11.149000
O      7.122000   -1.877000  -10.300000
C      9.640000   -0.126000  -10.009000
C     10.590000    1.032000   -9.935000
C     10.709000    1.938000   -8.926000
C     11.585000    1.377000  -10.904000
C     12.260000    2.512000  -10.424000
C     11.964000    0.838000  -12.137000
N     11.708000    2.835000   -9.213000
C     13.293000    3.117000  -11.129000
C     12.983000    1.439000  -12.836000
C     13.643000    2.562000  -12.328000
N      7.788000   -1.538000  -12.431000
C      7.215000   -2.771000  -12.945000
C      8.231000   -3.369000  -13.901000
O      8.977000   -2.645000  -14.564000
C      5.878000   -2.600000  -13.686000
C      5.933000   -1.769000  -14.960000
C      4.585000   -1.718000  -15.659000
O      3.717000   -2.548000  -15.326000
O      4.393000   -0.865000  -16.548000
N      8.260000   -4.694000  -13.967000
C      8.982000   -5.379000  -15.028000
C      8.116000   -6.528000  -15.497000
O      7.538000   -7.240000  -14.672000
C     10.357000   -5.890000  -14.580000
C     10.336000   -7.058000  -13.611000
S     10.496000   -8.680000  -14.400000
C     12.098000   -8.555000  -15.191000
N      7.974000   -6.664000  -16.810000
C      7.213000   -7.776000  -17.378000
C      5.807000   -7.655000  -16.794000
O      5.259000   -6.543000  -16.788000
C      7.962000   -9.076000  -17.114000
C      9.400000   -9.088000  -17.695000
C      9.490000   -8.923000  -19.220000
O      8.454000   -8.765000  -19.903000
O     10.626000   -8.942000  -19.743000
N      5.210000   -8.720000  -16.262000
C      3.898000   -8.622000  -15.630000
C      3.967000   -8.673000  -14.101000
O      3.007000   -9.105000  -13.449000
C      2.964000   -9.703000  -16.175000
C      2.629000   -9.501000  -17.644000
O      2.066000   -8.441000  -17.974000
O      2.936000  -10.383000  -18.469000
N      5.103000   -8.292000  -13.527000
C      5.368000   -8.405000  -12.103000
C      5.315000   -7.020000  -11.462000
O      5.893000   -6.069000  -12.000000
C      6.739000   -9.034000  -11.870000
C      6.904000  -10.414000  -12.454000
C      8.324000  -10.893000  -12.228000
C      8.581000  -12.247000  -12.855000
N      9.510000  -13.054000  -12.017000
N      4.562000   -6.887000  -10.365000
C      4.523000   -5.638000   -9.601000
C      5.773000   -5.530000   -8.735000
O      5.969000   -6.346000   -7.831000
C      3.295000   -5.560000   -8.702000
C      2.028000   -5.373000   -9.461000
N      0.917000   -5.322000   -8.742000
O      2.035000   -5.254000  -10.680000
N      6.659000   -4.585000   -9.040000
C      7.877000   -4.447000   -8.245000
C      7.653000   -3.496000   -7.068000
O      7.798000   -3.886000   -5.904000
C      9.079000   -4.012000   -9.095000
C      9.217000   -4.923000  -10.309000
C     10.347000   -4.070000   -8.277000
C     10.179000   -4.398000  -11.331000
N      7.326000   -2.236000   -7.363000
C      7.287000   -1.162000   -6.371000
C      6.049000   -0.301000   -6.584000
O      5.828000    0.217000   -7.681000
C      8.544000   -0.274000   -6.452000
C      9.769000   -1.019000   -5.940000
C      8.335000    1.013000   -5.687000
C      9.801000   -1.139000   -4.439000
N      5.271000   -0.097000   -5.527000
C      4.184000    0.877000   -5.541000
C      4.400000    1.873000   -4.410000
O      4.256000    1.533000   -3.231000
C      2.822000    0.201000   -5.436000
C      1.677000    1.189000   -5.364000
C      0.353000    0.518000   -5.106000
N     -0.145000    0.638000   -3.880000
O     -0.207000   -0.127000   -5.993000
N      4.758000    3.095000   -4.781000
C      4.980000    4.191000   -3.853000
C      4.075000    5.326000   -4.293000
O      4.171000    5.781000   -5.437000
C      6.437000    4.646000   -3.898000
C      6.780000    5.696000   -2.893000
C      6.337000    5.599000   -1.591000
C      7.496000    6.813000   -3.268000
C      6.649000    6.571000   -0.662000
C      7.802000    7.799000   -2.344000
C      7.376000    7.676000   -1.041000
N      3.217000    5.805000   -3.402000
C      2.278000    6.837000   -3.820000
C      1.884000    7.708000   -2.637000
O      1.730000    7.222000   -1.510000
C      1.042000    6.167000   -4.472000
C      0.328000    5.276000   -3.476000
C      0.051000    7.213000   -4.962000
N      4.748000    3.916000    1.147000
C      5.022000    2.613000    0.553000
C      3.831000    1.667000    0.605000
O      3.004000    1.719000    1.521000
C      6.229000    1.966000    1.244000
C      6.845000    0.803000    0.461000
C      8.039000    1.203000   -0.399000
O      8.618000    2.270000   -0.128000
O      8.382000    0.467000   -1.356000
N      3.792000    0.755000   -0.368000
C      2.865000   -0.372000   -0.364000
C      3.625000   -1.635000   -0.759000
O      4.004000   -1.780000   -1.924000
C      1.705000   -0.106000   -1.317000
C      0.502000   -0.950000   -1.002000
O      0.709000   -2.078000   -0.517000
O     -0.641000   -0.478000   -1.203000
N      3.846000   -2.556000    0.187000
C      4.566000   -3.786000   -0.144000
C      3.669000   -4.989000   -0.404000
O      4.144000   -5.975000   -0.981000
C      5.583000   -4.167000    0.947000
C      6.790000   -3.293000    1.305000
C      7.514000   -2.798000    0.055000
C      6.399000   -2.146000    2.213000
N      2.403000   -4.954000    0.015000
C      1.543000   -6.112000   -0.205000
C      1.319000   -6.361000   -1.689000
O      1.158000   -7.514000   -2.104000
C      0.208000   -5.934000    0.525000
C     -0.565000   -4.675000    0.149000
C     -1.876000   -4.542000    0.924000
C     -2.900000   -3.654000    0.207000
N     -2.305000   -2.418000   -0.373000
N      1.335000   -5.299000   -2.497000
C      1.123000   -5.418000   -3.936000
C      2.347000   -5.966000   -4.659000
O      2.232000   -6.413000   -5.806000
C      0.725000   -4.058000   -4.536000
C     -0.392000   -3.423000   -3.724000
C      1.924000   -3.131000   -4.602000
N      3.515000   -5.925000   -4.025000
C      4.747000   -6.351000   -4.670000
C      4.685000   -7.826000   -5.056000
O      4.178000   -8.663000   -4.303000
C      5.913000   -6.073000   -3.719000
C      7.281000   -6.527000   -4.157000
C      8.347000   -6.142000   -3.143000
N      9.206000   -5.203000   -3.521000
O      8.386000   -6.665000   -2.028000
N      5.205000   -8.142000   -6.243000
C      5.267000   -9.528000   -6.689000
C      6.125000  -10.333000   -5.729000
O      7.140000   -9.849000   -5.225000
C      5.844000   -9.604000   -8.102000
C      5.729000  -10.955000   -8.739000
C      4.811000  -11.468000   -9.592000
N      6.661000  -11.951000   -8.538000
C      6.317000  -13.021000   -9.230000
N      5.198000  -12.755000   -9.878000
N      5.714000  -11.572000   -5.468000
C      6.412000  -12.341000   -4.449000
C      7.873000  -12.603000   -4.795000
O      8.695000  -12.754000   -3.884000
C      5.690000  -13.667000   -4.216000
O      5.655000  -14.425000   -5.410000
N     10.276000   -0.764000  -16.072000
C      9.627000    0.506000  -16.381000
C      9.304000    1.234000  -15.085000
O      8.517000    0.725000  -14.278000
C      8.361000    0.267000  -17.195000
C      7.484000    1.477000  -17.316000
C      6.481000    1.311000  -18.414000
N      5.248000    2.012000  -18.091000
C      4.038000    1.512000  -18.281000
N      3.864000    0.308000  -18.797000
N      2.977000    2.237000  -17.943000
N      7.436000    4.424000  -13.388000
C      6.359000    5.360000  -13.664000
C      6.305000    6.345000  -12.509000
O      6.108000    5.943000  -11.359000
C      5.021000    4.628000  -13.820000
C      5.020000    3.525000  -14.880000
S      5.178000    1.849000  -14.211000
C      3.489000    1.530000  -13.730000
