obj01
  PyMOL2.5          3D                             0

296303  0  0  0  0  0  0  0  0999 V2000
   -3.4010    8.7320  -15.0980 N   0  0  0  0  0  0  0  0  0  0  0  0
   -2.1670    7.9740  -15.2860 C   0  0  0  0  0  0  0  0  0  0  0  0
   -1.6800    7.2480  -14.0400 C   0  0  0  0  0  0  0  0  0  0  0  0
   -1.4870    6.0390  -14.0970 O   0  0  0  0  0  0  0  0  0  0  0  0
   -1.0560    8.8780  -15.8100 C   0  0  0  0  0  0  0  0  0  0  0  0
   -0.7340    8.6020  -17.2320 C   0  0  0  0  0  0  0  0  0  0  0  0
   -1.1730    7.5350  -17.7090 O   0  0  0  0  0  0  0  0  0  0  0  0
   -0.0480    9.4330  -17.8640 O   0  5  0  0  0  0  0  0  0  0  0  0
   -3.6710    9.1590  -15.9730 H   0  0  0  0  0  0  0  0  0  0  0  0
   -2.4140    7.2050  -16.0180 H   0  0  0  0  0  0  0  0  0  0  0  0
   -0.1600    8.6840  -15.2200 H   0  0  0  0  0  0  0  0  0  0  0  0
   -3.2530    9.4500  -14.4040 H   0  0  0  0  0  0  0  0  0  0  0  0
   -1.3740    9.9160  -15.7160 H   0  0  0  0  0  0  0  0  0  0  0  0
    0.0760   10.2200  -17.3280 H   0  0  0  0  0  0  0  0  0  0  0  0
   -1.4900    7.9410  -12.9090 N   0  0  0  0  0  0  0  0  0  0  0  0
   -1.2940    7.1830  -11.6690 C   0  0  0  0  0  0  0  0  0  0  0  0
   -2.5170    6.3710  -11.3160 C   0  0  0  0  0  0  0  0  0  0  0  0
   -2.3870    5.2680  -10.7710 O   0  0  0  0  0  0  0  0  0  0  0  0
   -1.0030    8.2700  -10.6260 C   0  0  0  0  0  0  0  0  0  0  0  0
   -0.6420    9.4690  -11.4030 C   0  0  0  0  0  0  0  0  0  0  0  0
   -1.4370    9.3910  -12.6480 C   0  0  0  0  0  0  0  0  0  0  0  0
   -0.2070    7.9740   -9.9430 H   0  0  0  0  0  0  0  0  0  0  0  0
   -1.8860    8.4610  -10.0160 H   0  0  0  0  0  0  0  0  0  0  0  0
    0.4280    9.5080  -11.6100 H   0  0  0  0  0  0  0  0  0  0  0  0
   -0.8920   10.3730  -10.8470 H   0  0  0  0  0  0  0  0  0  0  0  0
   -2.4210    9.8510  -12.5620 H   0  0  0  0  0  0  0  0  0  0  0  0
   -0.9440    9.9200  -13.4640 H   0  0  0  0  0  0  0  0  0  0  0  0
   -0.4900    6.4500  -11.7410 H   0  0  0  0  0  0  0  0  0  0  0  0
   -3.7090    6.8870  -11.6300 N   0  0  0  0  0  0  0  0  0  0  0  0
   -4.9230    6.0910  -11.5250 C   0  0  0  0  0  0  0  0  0  0  0  0
   -4.7930    4.8020  -12.3250 C   0  0  0  0  0  0  0  0  0  0  0  0
   -4.9620    3.7010  -11.7880 O   0  0  0  0  0  0  0  0  0  0  0  0
   -6.1220    6.9110  -12.0040 C   0  0  0  0  0  0  0  0  0  0  0  0
   -5.0780    5.8200  -10.4810 H   0  0  0  0  0  0  0  0  0  0  0  0
   -6.9410    6.8060  -11.2920 H   0  0  0  0  0  0  0  0  0  0  0  0
   -5.8380    7.9610  -12.0790 H   0  0  0  0  0  0  0  0  0  0  0  0
   -6.4430    6.5500  -12.9810 H   0  0  0  0  0  0  0  0  0  0  0  0
   -3.7680    7.8450  -11.9450 H   0  0  0  0  0  0  0  0  0  0  0  0
   -4.4450    4.9240  -13.6080 N   0  0  0  0  0  0  0  0  0  0  0  0
   -4.3080    3.7450  -14.4560 C   0  0  0  0  0  0  0  0  0  0  0  0
   -3.2560    2.7890  -13.9120 C   0  0  0  0  0  0  0  0  0  0  0  0
   -3.4490    1.5690  -13.9300 O   0  0  0  0  0  0  0  0  0  0  0  0
   -3.9790    4.1740  -15.8850 C   0  0  0  0  0  0  0  0  0  0  0  0
   -3.7780    3.0730  -16.9220 C   0  0  0  0  0  0  0  0  0  0  0  0
   -4.8690    2.0450  -16.8260 C   0  0  0  0  0  0  0  0  0  0  0  0
   -3.7930    3.6930  -18.3000 C   0  0  0  0  0  0  0  0  0  0  0  0
   -5.2560    3.2070  -14.4600 H   0  0  0  0  0  0  0  0  0  0  0  0
   -3.0090    4.6660  -15.8110 H   0  0  0  0  0  0  0  0  0  0  0  0
   -4.7960    4.8060  -16.2330 H   0  0  0  0  0  0  0  0  0  0  0  0
   -2.8230    2.5810  -16.7370 H   0  0  0  0  0  0  0  0  0  0  0  0
   -4.2750    5.8410  -13.9950 H   0  0  0  0  0  0  0  0  0  0  0  0
   -5.7480    2.3970  -17.3670 H   0  0  0  0  0  0  0  0  0  0  0  0
   -4.5250    1.1080  -17.2630 H   0  0  0  0  0  0  0  0  0  0  0  0
   -5.1270    1.8850  -15.7790 H   0  0  0  0  0  0  0  0  0  0  0  0
   -3.4800    4.7350  -18.2320 H   0  0  0  0  0  0  0  0  0  0  0  0
   -3.1080    3.1500  -18.9510 H   0  0  0  0  0  0  0  0  0  0  0  0
   -4.8010    3.6430  -18.7110 H   0  0  0  0  0  0  0  0  0  0  0  0
   -2.1380    3.3230  -13.4180 N   0  0  0  0  0  0  0  0  0  0  0  0
   -1.0930    2.4570  -12.8900 C   0  0  0  0  0  0  0  0  0  0  0  0
   -1.5600    1.7560  -11.6240 C   0  0  0  0  0  0  0  0  0  0  0  0
   -1.2890    0.5670  -11.4280 O   0  0  0  0  0  0  0  0  0  0  0  0
    0.1680    3.2630  -12.6020 C   0  0  0  0  0  0  0  0  0  0  0  0
    0.7450    3.9240  -13.7990 C   0  0  0  0  0  0  0  0  0  0  0  0
    0.6890    3.4900  -15.0880 C   0  0  0  0  0  0  0  0  0  0  0  0
    1.4840    5.1500  -13.8170 C   0  0  0  0  0  0  0  0  0  0  0  0
    1.8400    5.4020  -15.1550 C   0  0  0  0  0  0  0  0  0  0  0  0
    1.8760    6.0610  -12.8290 C   0  0  0  0  0  0  0  0  0  0  0  0
    1.3400    4.3760  -15.9130 N   0  0  0  0  0  0  0  0  0  0  0  0
    2.5690    6.5270  -15.5320 C   0  0  0  0  0  0  0  0  0  0  0  0
    2.5980    7.1730  -13.2020 C   0  0  0  0  0  0  0  0  0  0  0  0
    2.9390    7.3990  -14.5430 C   0  0  0  0  0  0  0  0  0  0  0  0
   -0.8680    1.7010  -13.6420 H   0  0  0  0  0  0  0  0  0  0  0  0
    0.9170    2.5600  -12.2370 H   0  0  0  0  0  0  0  0  0  0  0  0
   -0.0750    4.0320  -11.8680 H   0  0  0  0  0  0  0  0  0  0  0  0
    0.1990    2.5740  -15.4180 H   0  0  0  0  0  0  0  0  0  0  0  0
    1.6150    5.8930  -11.7840 H   0  0  0  0  0  0  0  0  0  0  0  0
    1.4340    4.2850  -16.9140 H   0  0  0  0  0  0  0  0  0  0  0  0
    2.8350    6.7070  -16.5740 H   0  0  0  0  0  0  0  0  0  0  0  0
    2.9100    7.8890  -12.4420 H   0  0  0  0  0  0  0  0  0  0  0  0
    3.5120    8.2890  -14.8040 H   0  0  0  0  0  0  0  0  0  0  0  0
   -2.0160    4.3260  -13.4100 H   0  0  0  0  0  0  0  0  0  0  0  0
   -2.2730    2.4690  -10.7540 N   0  0  0  0  0  0  0  0  0  0  0  0
   -2.7680    1.7990   -9.5660 C   0  0  0  0  0  0  0  0  0  0  0  0
   -3.8680    0.8170   -9.9210 C   0  0  0  0  0  0  0  0  0  0  0  0
   -4.0080   -0.2140   -9.2550 O   0  0  0  0  0  0  0  0  0  0  0  0
   -3.2620    2.8110   -8.5390 C   0  0  0  0  0  0  0  0  0  0  0  0
   -2.9510    2.3990   -7.1070 C   0  0  0  0  0  0  0  0  0  0  0  0
   -4.0080    2.8610   -6.1260 C   0  0  0  0  0  0  0  0  0  0  0  0
   -3.5790    3.4770   -5.0260 N   0  0  0  0  0  0  0  0  0  0  0  0
   -5.2020    2.6720   -6.3600 O   0  0  0  0  0  0  0  0  0  0  0  0
   -1.9420    1.2410   -9.1240 H   0  0  0  0  0  0  0  0  0  0  0  0
   -4.3460    2.8720   -8.6340 H   0  0  0  0  0  0  0  0  0  0  0  0
   -2.7850    3.7710   -8.7370 H   0  0  0  0  0  0  0  0  0  0  0  0
   -2.0100    2.8710   -6.8250 H   0  0  0  0  0  0  0  0  0  0  0  0
   -2.8840    1.3120   -7.0620 H   0  0  0  0  0  0  0  0  0  0  0  0
   -4.2430    3.8080   -4.3410 H   0  0  0  0  0  0  0  0  0  0  0  0
   -2.5890    3.6130   -4.8770 H   0  0  0  0  0  0  0  0  0  0  0  0
   -2.4640    3.4470  -10.9160 H   0  0  0  0  0  0  0  0  0  0  0  0
   -4.6420    1.1040  -10.9730 N   0  0  0  0  0  0  0  0  0  0  0  0
   -5.6070    0.1260  -11.4700 C   0  0  0  0  0  0  0  0  0  0  0  0
   -4.9210   -1.1800  -11.8510 C   0  0  0  0  0  0  0  0  0  0  0  0
   -5.4110   -2.2680  -11.5290 O   0  0  0  0  0  0  0  0  0  0  0  0
   -6.3800    0.6850  -12.6710 C   0  0  0  0  0  0  0  0  0  0  0  0
   -7.7810    1.7970  -12.3110 S   0  0  0  0  0  0  0  0  0  0  0  0
   -6.3120   -0.0790  -10.6650 H   0  0  0  0  0  0  0  0  0  0  0  0
   -6.8270   -0.1860  -13.1490 H   0  0  0  0  0  0  0  0  0  0  0  0
   -5.6730    1.2370  -13.2900 H   0  0  0  0  0  0  0  0  0  0  0  0
   -4.5590    2.0020  -11.4270 H   0  0  0  0  0  0  0  0  0  0  0  0
   -3.7780   -1.0960  -12.5220 N   0  0  0  0  0  0  0  0  0  0  0  0
   -3.1340   -2.3090  -13.0010 C   0  0  0  0  0  0  0  0  0  0  0  0
   -2.3800   -2.9990  -11.8760 C   0  0  0  0  0  0  0  0  0  0  0  0
   -2.3930   -4.2290  -11.7750 O   0  0  0  0  0  0  0  0  0  0  0  0
   -2.2250   -1.9800  -14.1940 C   0  0  0  0  0  0  0  0  0  0  0  0
   -1.3980   -3.1760  -14.5650 C   0  0  0  0  0  0  0  0  0  0  0  0
   -3.0690   -1.5540  -15.3750 C   0  0  0  0  0  0  0  0  0  0  0  0
   -3.8950   -3.0090  -13.3460 H   0  0  0  0  0  0  0  0  0  0  0  0
   -1.5570   -1.1660  -13.9140 H   0  0  0  0  0  0  0  0  0  0  0  0
   -0.4420   -3.1320  -14.0430 H   0  0  0  0  0  0  0  0  0  0  0  0
   -3.3580   -0.1950  -12.6990 H   0  0  0  0  0  0  0  0  0  0  0  0
   -1.9260   -4.0860  -14.2800 H   0  0  0  0  0  0  0  0  0  0  0  0
   -1.2240   -3.1780  -15.6410 H   0  0  0  0  0  0  0  0  0  0  0  0
   -3.9630   -1.0430  -15.0170 H   0  0  0  0  0  0  0  0  0  0  0  0
   -2.4940   -0.8790  -16.0080 H   0  0  0  0  0  0  0  0  0  0  0  0
   -3.3600   -2.4330  -15.9500 H   0  0  0  0  0  0  0  0  0  0  0  0
   -1.7120   -2.2280  -11.0150 N   0  0  0  0  0  0  0  0  0  0  0  0
   -1.0050   -2.8220   -9.8830 C   0  0  0  0  0  0  0  0  0  0  0  0
   -1.9590   -3.5810   -8.9640 C   0  0  0  0  0  0  0  0  0  0  0  0
   -1.6000   -4.6280   -8.4080 O   0  0  0  0  0  0  0  0  0  0  0  0
   -0.2500   -1.7440   -9.1100 C   0  0  0  0  0  0  0  0  0  0  0  0
    1.2000   -1.6510   -9.4750 C   0  0  0  0  0  0  0  0  0  0  0  0
    1.5880   -1.5460  -10.8030 C   0  0  0  0  0  0  0  0  0  0  0  0
    2.1750   -1.6840   -8.4950 C   0  0  0  0  0  0  0  0  0  0  0  0
    2.9240   -1.4630  -11.1460 C   0  0  0  0  0  0  0  0  0  0  0  0
    3.5090   -1.6030   -8.8300 C   0  0  0  0  0  0  0  0  0  0  0  0
    3.8860   -1.4930  -10.1590 C   0  0  0  0  0  0  0  0  0  0  0  0
   -0.2860   -3.5430  -10.2730 H   0  0  0  0  0  0  0  0  0  0  0  0
   -0.2980   -2.0140   -8.0550 H   0  0  0  0  0  0  0  0  0  0  0  0
   -0.7200   -0.7810   -9.3120 H   0  0  0  0  0  0  0  0  0  0  0  0
    0.8290   -1.5290  -11.5860 H   0  0  0  0  0  0  0  0  0  0  0  0
    1.8860   -1.7750   -7.4480 H   0  0  0  0  0  0  0  0  0  0  0  0
    3.2160   -1.3740  -12.1920 H   0  0  0  0  0  0  0  0  0  0  0  0
    4.2690   -1.6250   -8.0490 H   0  0  0  0  0  0  0  0  0  0  0  0
    4.9420   -1.4300  -10.4240 H   0  0  0  0  0  0  0  0  0  0  0  0
   -1.6950   -1.2270  -11.1470 H   0  0  0  0  0  0  0  0  0  0  0  0
   -3.1710   -3.0600   -8.7750 N   0  0  0  0  0  0  0  0  0  0  0  0
   -4.1450   -3.7500   -7.9360 C   0  0  0  0  0  0  0  0  0  0  0  0
   -4.7330   -4.9670   -8.6450 C   0  0  0  0  0  0  0  0  0  0  0  0
   -5.0090   -5.9900   -8.0070 O   0  0  0  0  0  0  0  0  0  0  0  0
   -5.2480   -2.7810   -7.5230 C   0  0  0  0  0  0  0  0  0  0  0  0
   -3.6330   -4.1110   -7.0440 H   0  0  0  0  0  0  0  0  0  0  0  0
   -6.1400   -3.3430   -7.2460 H   0  0  0  0  0  0  0  0  0  0  0  0
   -4.9130   -2.1900   -6.6710 H   0  0  0  0  0  0  0  0  0  0  0  0
   -5.4810   -2.1190   -8.3570 H   0  0  0  0  0  0  0  0  0  0  0  0
   -3.4160   -2.1840   -9.2140 H   0  0  0  0  0  0  0  0  0  0  0  0
   -4.9270   -4.8780   -9.9640 N   0  0  0  0  0  0  0  0  0  0  0  0
   -5.4590   -6.0090  -10.7200 C   0  0  0  0  0  0  0  0  0  0  0  0
   -4.5320   -7.2140  -10.6430 C   0  0  0  0  0  0  0  0  0  0  0  0
   -4.9910   -8.3540  -10.4960 O   0  0  0  0  0  0  0  0  0  0  0  0
   -5.6860   -5.6100  -12.1750 C   0  0  0  0  0  0  0  0  0  0  0  0
   -6.4130   -6.2910  -10.2740 H   0  0  0  0  0  0  0  0  0  0  0  0
   -6.4160   -4.8010  -12.2200 H   0  0  0  0  0  0  0  0  0  0  0  0
   -4.7450   -5.2740  -12.6110 H   0  0  0  0  0  0  0  0  0  0  0  0
   -6.0600   -6.4680  -12.7330 H   0  0  0  0  0  0  0  0  0  0  0  0
   -4.7030   -4.0180  -10.4440 H   0  0  0  0  0  0  0  0  0  0  0  0
   -3.2230   -6.9840  -10.7540 N   0  0  0  0  0  0  0  0  0  0  0  0
   -2.2780   -8.0900  -10.6960 C   0  0  0  0  0  0  0  0  0  0  0  0
   -2.1830   -8.6440   -9.2850 C   0  0  0  0  0  0  0  0  0  0  0  0
   -2.0680   -9.8600   -9.0990 O   0  0  0  0  0  0  0  0  0  0  0  0
   -0.9020   -7.6540  -11.1920 C   0  0  0  0  0  0  0  0  0  0  0  0
   -0.9200   -7.0400  -12.5760 C   0  0  0  0  0  0  0  0  0  0  0  0
    0.4590   -7.0360  -13.2030 C   0  0  0  0  0  0  0  0  0  0  0  0
    1.2280   -5.8540  -12.8360 N   0  0  0  0  0  0  0  0  0  0  0  0
    2.0600   -5.2240  -13.6520 C   0  0  0  0  0  0  0  0  0  0  0  0
    2.2310   -5.6200  -14.9020 N   0  3  0  0  0  0  0  0  0  0  0  0
    2.7440   -4.1750  -13.2000 N   0  0  0  0  0  0  0  0  0  0  0  0
   -2.6440   -8.8800  -11.3510 H   0  0  0  0  0  0  0  0  0  0  0  0
   -0.2860   -8.5510  -11.2500 H   0  0  0  0  0  0  0  0  0  0  0  0
   -0.5010   -6.9190  -10.4940 H   0  0  0  0  0  0  0  0  0  0  0  0
   -1.2560   -6.0070  -12.4860 H   0  0  0  0  0  0  0  0  0  0  0  0
   -2.8860   -6.0400  -10.8790 H   0  0  0  0  0  0  0  0  0  0  0  0
   -1.5960   -7.6140  -13.2100 H   0  0  0  0  0  0  0  0  0  0  0  0
    0.3340   -7.0300  -14.2860 H   0  0  0  0  0  0  0  0  0  0  0  0
    0.9980   -7.9230  -12.8720 H   0  0  0  0  0  0  0  0  0  0  0  0
    1.1200   -5.4920  -11.8990 H   0  0  0  0  0  0  0  0  0  0  0  0
    2.8730   -5.1260  -15.5050 H   0  0  0  0  0  0  0  0  0  0  0  0
    1.7190   -6.4170  -15.2540 H   0  0  0  0  0  0  0  0  0  0  0  0
    3.3840   -3.6880  -13.8110 H   0  0  0  0  0  0  0  0  0  0  0  0
   -2.2130   -7.7680   -8.2790 N   0  0  0  0  0  0  0  0  0  0  0  0
   -2.1920   -8.2500   -6.9030 C   0  0  0  0  0  0  0  0  0  0  0  0
   -3.3400   -9.2140   -6.6450 C   0  0  0  0  0  0  0  0  0  0  0  0
   -3.1520  -10.2520   -6.0000 O   0  0  0  0  0  0  0  0  0  0  0  0
   -2.2520   -7.0780   -5.9290 C   0  0  0  0  0  0  0  0  0  0  0  0
   -2.4750   -7.4940   -4.4910 C   0  0  0  0  0  0  0  0  0  0  0  0
   -1.5650   -8.3100   -3.8300 C   0  0  0  0  0  0  0  0  0  0  0  0
   -3.5960   -7.0670   -3.7910 C   0  0  0  0  0  0  0  0  0  0  0  0
   -1.7680   -8.6890   -2.5090 C   0  0  0  0  0  0  0  0  0  0  0  0
   -3.8050   -7.4400   -2.4720 C   0  0  0  0  0  0  0  0  0  0  0  0
   -2.8900   -8.2490   -1.8380 C   0  0  0  0  0  0  0  0  0  0  0  0
   -3.1060   -8.6140   -0.5290 O   0  0  0  0  0  0  0  0  0  0  0  0
   -1.2570   -8.7880   -6.7460 H   0  0  0  0  0  0  0  0  0  0  0  0
   -3.1060   -6.4660   -6.2200 H   0  0  0  0  0  0  0  0  0  0  0  0
   -1.3110   -6.5320   -5.9880 H   0  0  0  0  0  0  0  0  0  0  0  0
   -0.6770   -8.6590   -4.3570 H   0  0  0  0  0  0  0  0  0  0  0  0
   -4.3250   -6.4270   -4.2880 H   0  0  0  0  0  0  0  0  0  0  0  0
   -1.0450   -9.3300   -2.0060 H   0  0  0  0  0  0  0  0  0  0  0  0
   -4.6910   -7.0940   -1.9390 H   0  0  0  0  0  0  0  0  0  0  0  0
   -2.8940   -7.8770    0.0480 H   0  0  0  0  0  0  0  0  0  0  0  0
   -2.2500   -6.7770   -8.4690 H   0  0  0  0  0  0  0  0  0  0  0  0
   -4.5350   -8.8980   -7.1530 N   0  0  0  0  0  0  0  0  0  0  0  0
   -5.6410   -9.8470   -7.0750 C   0  0  0  0  0  0  0  0  0  0  0  0
   -5.2860  -11.1790   -7.7140 C   0  0  0  0  0  0  0  0  0  0  0  0
   -5.6020  -12.2430   -7.1700 O   0  0  0  0  0  0  0  0  0  0  0  0
   -6.8890   -9.2700   -7.7360 C   0  0  0  0  0  0  0  0  0  0  0  0
   -8.3190   -9.2950   -6.6460 S   0  0  0  0  0  0  0  0  0  0  0  0
   -5.8430  -10.0240   -6.0190 H   0  0  0  0  0  0  0  0  0  0  0  0
   -7.1220   -9.8900   -8.6020 H   0  0  0  0  0  0  0  0  0  0  0  0
   -6.6870   -8.2390   -8.0250 H   0  0  0  0  0  0  0  0  0  0  0  0
   -4.6730   -7.9990   -7.5920 H   0  0  0  0  0  0  0  0  0  0  0  0
   -4.6000  -11.1420   -8.8510 N   0  0  0  0  0  0  0  0  0  0  0  0
   -4.2820  -12.3820   -9.5380 C   0  0  0  0  0  0  0  0  0  0  0  0
   -3.2310  -13.1660   -8.7690 C   0  0  0  0  0  0  0  0  0  0  0  0
   -3.3930  -14.3670   -8.5310 O   0  0  0  0  0  0  0  0  0  0  0  0
   -3.8130  -12.0690  -10.9590 C   0  0  0  0  0  0  0  0  0  0  0  0
   -3.2340  -13.2430  -11.7000 C   0  0  0  0  0  0  0  0  0  0  0  0
   -4.0210  -14.3430  -12.0240 C   0  0  0  0  0  0  0  0  0  0  0  0
   -1.8960  -13.2620  -12.0690 C   0  0  0  0  0  0  0  0  0  0  0  0
   -3.4950  -15.4310  -12.7050 C   0  0  0  0  0  0  0  0  0  0  0  0
   -1.3520  -14.3470  -12.7490 C   0  0  0  0  0  0  0  0  0  0  0  0
   -2.1560  -15.4320  -13.0680 C   0  0  0  0  0  0  0  0  0  0  0  0
   -1.6170  -16.5100  -13.7460 O   0  0  0  0  0  0  0  0  0  0  0  0
   -5.1750  -13.0040   -9.5940 H   0  0  0  0  0  0  0  0  0  0  0  0
   -3.0110  -11.3370  -10.8650 H   0  0  0  0  0  0  0  0  0  0  0  0
   -4.6670  -11.6960  -11.5250 H   0  0  0  0  0  0  0  0  0  0  0  0
   -4.3010  -10.2570   -9.2360 H   0  0  0  0  0  0  0  0  0  0  0  0
   -5.0730  -14.3500  -11.7370 H   0  0  0  0  0  0  0  0  0  0  0  0
   -1.2600  -12.4120  -11.8220 H   0  0  0  0  0  0  0  0  0  0  0  0
   -4.1310  -16.2810  -12.9540 H   0  0  0  0  0  0  0  0  0  0  0  0
   -0.2990  -14.3450  -13.0300 H   0  0  0  0  0  0  0  0  0  0  0  0
   -1.5510  -16.3000  -14.6810 H   0  0  0  0  0  0  0  0  0  0  0  0
   -2.1630  -12.4930   -8.3390 N   0  0  0  0  0  0  0  0  0  0  0  0
   -1.0730  -13.1820   -7.6550 C   0  0  0  0  0  0  0  0  0  0  0  0
   -1.5160  -13.7340   -6.3050 C   0  0  0  0  0  0  0  0  0  0  0  0
   -1.3250  -14.9200   -6.0150 O   0  0  0  0  0  0  0  0  0  0  0  0
    0.1160  -12.2390   -7.4860 C   0  0  0  0  0  0  0  0  0  0  0  0
    0.6680  -11.7320   -8.8050 C   0  0  0  0  0  0  0  0  0  0  0  0
    1.3910  -12.8130   -9.5820 C   0  0  0  0  0  0  0  0  0  0  0  0
    2.0390  -13.6720   -8.9420 O   0  0  0  0  0  0  0  0  0  0  0  0
    1.3070  -12.8020  -10.8310 O   0  5  0  0  0  0  0  0  0  0  0  0
   -0.7720  -14.0300   -8.2700 H   0  0  0  0  0  0  0  0  0  0  0  0
    0.9100  -12.8040   -6.9980 H   0  0  0  0  0  0  0  0  0  0  0  0
   -0.2020  -11.3830   -6.8910 H   0  0  0  0  0  0  0  0  0  0  0  0
    1.3880  -10.9440   -8.5830 H   0  0  0  0  0  0  0  0  0  0  0  0
   -0.1580  -11.3580   -9.4100 H   0  0  0  0  0  0  0  0  0  0  0  0
    0.7450  -13.5240  -11.1210 H   0  0  0  0  0  0  0  0  0  0  0  0
   -2.1080  -11.4960   -8.4880 H   0  0  0  0  0  0  0  0  0  0  0  0
   -2.0960  -12.8870   -5.4600 N   0  0  0  0  0  0  0  0  0  0  0  0
   -2.4270  -13.2890   -4.1000 C   0  0  0  0  0  0  0  0  0  0  0  0
   -3.9200  -13.5360   -3.9650 C   0  0  0  0  0  0  0  0  0  0  0  0
   -4.6170  -13.6920   -4.9650 O   0  0  0  0  0  0  0  0  0  0  0  0
   -1.9690  -12.2240   -3.1020 C   0  0  0  0  0  0  0  0  0  0  0  0
   -0.4530  -11.9660   -3.0530 C   0  0  0  0  0  0  0  0  0  0  0  0
    0.3950  -13.1900   -2.6940 C   0  0  0  0  0  0  0  0  0  0  0  0
    0.2420  -14.2630   -3.3190 O   0  0  0  0  0  0  0  0  0  0  0  0
    1.2280  -13.0780   -1.7650 O   0  5  0  0  0  0  0  0  0  0  0  0
   -1.9030  -14.2190   -3.8790 H   0  0  0  0  0  0  0  0  0  0  0  0
   -4.3760  -13.5750   -2.9760 H   0  0  0  0  0  0  0  0  0  0  0  0
   -2.2380  -12.6040   -2.1170 H   0  0  0  0  0  0  0  0  0  0  0  0
   -2.4610  -11.2870   -3.3620 H   0  0  0  0  0  0  0  0  0  0  0  0
   -0.2910  -11.2370   -2.2590 H   0  0  0  0  0  0  0  0  0  0  0  0
   -0.1370  -11.6090   -4.0330 H   0  0  0  0  0  0  0  0  0  0  0  0
   -2.3110  -11.9490   -5.7670 H   0  0  0  0  0  0  0  0  0  0  0  0
    1.5090  -13.9500   -1.4790 H   0  0  0  0  0  0  0  0  0  0  0  0
  -10.0410   -3.6250  -10.2890 C   0  0  0  0  0  0  0  0  0  0  0  0
   -9.5470   -1.3260  -10.8830 N   0  0  0  0  0  0  0  0  0  0  0  0
  -10.1320   -7.2950   -8.2440 O   0  0  0  0  0  0  0  0  0  0  0  0
   -9.9080   -4.7110   -9.4250 C   0  0  0  0  0  0  0  0  0  0  0  0
   -8.9300   -5.5910   -7.3680 N   0  0  0  0  0  0  0  0  0  0  0  0
   -8.2860    0.2300   -9.7810 O   0  0  0  0  0  0  0  0  0  0  0  0
   -9.0060   -0.1100  -10.7100 C   0  0  0  0  0  0  0  0  0  0  0  0
   -8.5080   -3.4130   -8.0050 C   0  0  0  0  0  0  0  0  0  0  0  0
   -8.6410   -2.3340   -8.8560 C   0  0  0  0  0  0  0  0  0  0  0  0
   -9.3100    0.8840  -11.7880 C   0  0  0  0  0  0  0  0  0  0  0  0
   -9.4070   -6.8280   -7.3830 C   0  0  0  0  0  0  0  0  0  0  0  0
   -8.9590   -7.6250   -6.1980 C   0  0  0  0  0  0  0  0  0  0  0  0
   -9.1340   -4.6080   -8.2770 C   0  0  0  0  0  0  0  0  0  0  0  0
   -9.4060   -2.4200  -10.0080 C   0  0  0  0  0  0  0  0  0  0  0  0
  -10.1040   -1.4690  -11.7130 H   0  0  0  0  0  0  0  0  0  0  0  0
  -10.4160   -5.6480   -9.6530 H   0  0  0  0  0  0  0  0  0  0  0  0
   -8.3420   -5.3520   -6.5820 H   0  0  0  0  0  0  0  0  0  0  0  0
   -7.8990   -3.3170   -7.1060 H   0  0  0  0  0  0  0  0  0  0  0  0
   -8.1350   -1.3980   -8.6170 H   0  0  0  0  0  0  0  0  0  0  0  0
   -9.7030    0.3470  -12.6510 H   0  0  0  0  0  0  0  0  0  0  0  0
  -10.0430    1.6000  -11.4160 H   0  0  0  0  0  0  0  0  0  0  0  0
   -8.1390   -7.0790   -5.7320 H   0  0  0  0  0  0  0  0  0  0  0  0
  -10.6460   -3.7210  -11.1900 H   0  0  0  0  0  0  0  0  0  0  0  0
   -9.8050   -7.7470   -5.5220 H   0  0  0  0  0  0  0  0  0  0  0  0
  1  2  1  0  0  0  0
  1  9  1  0  0  0  0
  1 12  1  0  0  0  0
  2  3  1  0  0  0  0
  2  5  1  0  0  0  0
  2 10  1  0  0  0  0
  3  4  2  0  0  0  0
  3 15  1  0  0  0  0
  5  6  1  0  0  0  0
  5 11  1  0  0  0  0
  5 13  1  0  0  0  0
  6  7  2  0  0  0  0
  6  8  1  0  0  0  0
  8 14  1  0  0  0  0
 15 16  1  0  0  0  0
 15 21  1  0  0  0  0
 16 17  1  0  0  0  0
 16 19  1  0  0  0  0
 16 28  1  0  0  0  0
 17 18  2  0  0  0  0
 17 29  1  0  0  0  0
 19 20  1  0  0  0  0
 19 22  1  0  0  0  0
 19 23  1  0  0  0  0
 20 21  1  0  0  0  0
 20 24  1  0  0  0  0
 20 25  1  0  0  0  0
 21 26  1  0  0  0  0
 21 27  1  0  0  0  0
 29 30  1  0  0  0  0
 29 38  1  0  0  0  0
 30 31  1  0  0  0  0
 30 33  1  0  0  0  0
 30 34  1  0  0  0  0
 31 32  2  0  0  0  0
 31 39  1  0  0  0  0
 33 35  1  0  0  0  0
 33 36  1  0  0  0  0
 33 37  1  0  0  0  0
 39 40  1  0  0  0  0
 39 51  1  0  0  0  0
 40 41  1  0  0  0  0
 40 43  1  0  0  0  0
 40 47  1  0  0  0  0
 41 42  2  0  0  0  0
 41 58  1  0  0  0  0
 43 44  1  0  0  0  0
 43 48  1  0  0  0  0
 43 49  1  0  0  0  0
 44 45  1  0  0  0  0
 44 46  1  0  0  0  0
 44 50  1  0  0  0  0
 45 52  1  0  0  0  0
 45 53  1  0  0  0  0
 45 54  1  0  0  0  0
 46 55  1  0  0  0  0
 46 56  1  0  0  0  0
 46 57  1  0  0  0  0
 58 59  1  0  0  0  0
 58 81  1  0  0  0  0
 59 60  1  0  0  0  0
 59 62  1  0  0  0  0
 59 72  1  0  0  0  0
 60 61  2  0  0  0  0
 60 82  1  0  0  0  0
 62 63  1  0  0  0  0
 62 73  1  0  0  0  0
 62 74  1  0  0  0  0
 63 64  2  0  0  0  0
 63 65  1  0  0  0  0
 64 68  1  0  0  0  0
 64 75  1  0  0  0  0
 65 66  2  0  0  0  0
 65 67  1  0  0  0  0
 66 68  1  0  0  0  0
 66 69  1  0  0  0  0
 67 70  2  0  0  0  0
 67 76  1  0  0  0  0
 68 77  1  0  0  0  0
 69 71  2  0  0  0  0
 69 78  1  0  0  0  0
 70 71  1  0  0  0  0
 70 79  1  0  0  0  0
 71 80  1  0  0  0  0
 82 83  1  0  0  0  0
 82 98  1  0  0  0  0
 83 84  1  0  0  0  0
 83 86  1  0  0  0  0
 83 91  1  0  0  0  0
 84 85  2  0  0  0  0
 84 99  1  0  0  0  0
 86 87  1  0  0  0  0
 86 92  1  0  0  0  0
 86 93  1  0  0  0  0
 87 88  1  0  0  0  0
 87 94  1  0  0  0  0
 87 95  1  0  0  0  0
 88 89  1  0  0  0  0
 88 90  2  0  0  0  0
 89 96  1  0  0  0  0
 89 97  1  0  0  0  0
 99100  1  0  0  0  0
 99108  1  0  0  0  0
100101  1  0  0  0  0
100103  1  0  0  0  0
100105  1  0  0  0  0
101102  2  0  0  0  0
101109  1  0  0  0  0
103104  1  0  0  0  0
103106  1  0  0  0  0
103107  1  0  0  0  0
104282  1  0  0  0  0
109110  1  0  0  0  0
109119  1  0  0  0  0
110111  1  0  0  0  0
110113  1  0  0  0  0
110116  1  0  0  0  0
111112  2  0  0  0  0
111125  1  0  0  0  0
113114  1  0  0  0  0
113115  1  0  0  0  0
113117  1  0  0  0  0
114118  1  0  0  0  0
114120  1  0  0  0  0
114121  1  0  0  0  0
115122  1  0  0  0  0
115123  1  0  0  0  0
115124  1  0  0  0  0
125126  1  0  0  0  0
125144  1  0  0  0  0
126127  1  0  0  0  0
126129  1  0  0  0  0
126136  1  0  0  0  0
127128  2  0  0  0  0
127145  1  0  0  0  0
129130  1  0  0  0  0
129137  1  0  0  0  0
129138  1  0  0  0  0
130131  2  0  0  0  0
130132  1  0  0  0  0
131133  1  0  0  0  0
131139  1  0  0  0  0
132134  2  0  0  0  0
132140  1  0  0  0  0
133135  2  0  0  0  0
133141  1  0  0  0  0
134135  1  0  0  0  0
134142  1  0  0  0  0
135143  1  0  0  0  0
145146  1  0  0  0  0
145154  1  0  0  0  0
146147  1  0  0  0  0
146149  1  0  0  0  0
146150  1  0  0  0  0
147148  2  0  0  0  0
147155  1  0  0  0  0
149151  1  0  0  0  0
149152  1  0  0  0  0
149153  1  0  0  0  0
155156  1  0  0  0  0
155164  1  0  0  0  0
156157  1  0  0  0  0
156159  1  0  0  0  0
156160  1  0  0  0  0
157158  2  0  0  0  0
157165  1  0  0  0  0
159161  1  0  0  0  0
159162  1  0  0  0  0
159163  1  0  0  0  0
165166  1  0  0  0  0
165180  1  0  0  0  0
166167  1  0  0  0  0
166169  1  0  0  0  0
166176  1  0  0  0  0
167168  2  0  0  0  0
167188  1  0  0  0  0
169170  1  0  0  0  0
169177  1  0  0  0  0
169178  1  0  0  0  0
170171  1  0  0  0  0
170179  1  0  0  0  0
170181  1  0  0  0  0
171172  1  0  0  0  0
171182  1  0  0  0  0
171183  1  0  0  0  0
172173  1  0  0  0  0
172184  1  0  0  0  0
173174  2  0  0  0  0
173175  1  0  0  0  0
174185  1  0  0  0  0
174186  1  0  0  0  0
175187  1  0  0  0  0
188189  1  0  0  0  0
188208  1  0  0  0  0
189190  1  0  0  0  0
189192  1  0  0  0  0
189200  1  0  0  0  0
190191  2  0  0  0  0
190209  1  0  0  0  0
192193  1  0  0  0  0
192201  1  0  0  0  0
192202  1  0  0  0  0
193194  2  0  0  0  0
193195  1  0  0  0  0
194196  1  0  0  0  0
194203  1  0  0  0  0
195197  2  0  0  0  0
195204  1  0  0  0  0
196198  2  0  0  0  0
196205  1  0  0  0  0
197198  1  0  0  0  0
197206  1  0  0  0  0
198199  1  0  0  0  0
199207  1  0  0  0  0
209210  1  0  0  0  0
209218  1  0  0  0  0
210211  1  0  0  0  0
210213  1  0  0  0  0
210215  1  0  0  0  0
211212  2  0  0  0  0
211219  1  0  0  0  0
213214  1  0  0  0  0
213216  1  0  0  0  0
213217  1  0  0  0  0
214284  1  0  0  0  0
219220  1  0  0  0  0
219234  1  0  0  0  0
220221  1  0  0  0  0
220223  1  0  0  0  0
220231  1  0  0  0  0
221222  2  0  0  0  0
221240  1  0  0  0  0
223224  1  0  0  0  0
223232  1  0  0  0  0
223233  1  0  0  0  0
224225  2  0  0  0  0
224226  1  0  0  0  0
225227  1  0  0  0  0
225235  1  0  0  0  0
226228  2  0  0  0  0
226236  1  0  0  0  0
227229  2  0  0  0  0
227237  1  0  0  0  0
228229  1  0  0  0  0
228238  1  0  0  0  0
229230  1  0  0  0  0
230239  1  0  0  0  0
240241  1  0  0  0  0
240255  1  0  0  0  0
241242  1  0  0  0  0
241244  1  0  0  0  0
241249  1  0  0  0  0
242243  2  0  0  0  0
242256  1  0  0  0  0
244245  1  0  0  0  0
244250  1  0  0  0  0
244251  1  0  0  0  0
245246  1  0  0  0  0
245252  1  0  0  0  0
245253  1  0  0  0  0
246247  2  0  0  0  0
246248  1  0  0  0  0
248254  1  0  0  0  0
256257  1  0  0  0  0
256271  1  0  0  0  0
257258  1  0  0  0  0
257260  1  0  0  0  0
257265  1  0  0  0  0
258259  2  0  0  0  0
258266  1  0  0  0  0
260261  1  0  0  0  0
260267  1  0  0  0  0
260268  1  0  0  0  0
261262  1  0  0  0  0
261269  1  0  0  0  0
261270  1  0  0  0  0
262263  2  0  0  0  0
262264  1  0  0  0  0
264272  1  0  0  0  0
273276  4  0  0  0  0
273286  4  0  0  0  0
273295  1  0  0  0  0
274279  1  0  0  0  0
274286  1  0  0  0  0
274287  1  0  0  0  0
275283  2  0  0  0  0
276285  4  0  0  0  0
276288  1  0  0  0  0
277283  1  0  0  0  0
277285  1  0  0  0  0
277289  1  0  0  0  0
278279  2  0  0  0  0
279282  1  0  0  0  0
280281  4  0  0  0  0
280285  4  0  0  0  0
280290  1  0  0  0  0
281286  4  0  0  0  0
281291  1  0  0  0  0
282292  1  0  0  0  0
282293  1  0  0  0  0
283284  1  0  0  0  0
284294  1  0  0  0  0
284296  1  0  0  0  0
M  END
$$$$
